Version 4
SHEET 1 880 680
WIRE 64 -128 -48 -128
WIRE 384 -128 224 -128
WIRE 416 -16 336 -16
WIRE 224 0 224 -128
WIRE 416 0 416 -16
WIRE 64 32 64 -128
WIRE 224 96 224 80
WIRE 272 96 272 -16
WIRE 272 96 224 96
WIRE 224 112 224 96
WIRE -96 160 -208 160
WIRE 64 160 64 112
WIRE 64 160 -32 160
WIRE 160 160 64 160
WIRE -208 224 -208 160
WIRE 224 272 224 208
FLAG 224 352 0
FLAG 384 -48 0
FLAG -48 -48 0
FLAG -208 304 0
FLAG 416 80 0
SYMBOL npn 160 112 R0
SYMATTR InstName Q1
SYMATTR Value BC547B
SYMBOL res 48 16 R0
SYMATTR InstName R1
SYMATTR Value 1Meg
SYMBOL res 208 -16 R0
SYMATTR InstName R2
SYMATTR Value 4k
SYMBOL res 208 256 R0
SYMATTR InstName R3
SYMATTR Value 100
SYMBOL voltage 384 -144 R0
WINDOW 123 0 0 Left 0
WINDOW 39 0 0 Left 0
SYMATTR InstName V2
SYMATTR Value 15
SYMBOL voltage -48 -144 R0
WINDOW 123 0 0 Left 0
WINDOW 39 0 0 Left 0
SYMATTR InstName V1
SYMATTR Value 10
SYMBOL voltage -208 208 R0
WINDOW 123 0 0 Left 0
WINDOW 39 0 0 Left 0
SYMATTR InstName V3
SYMATTR Value SINE(0 10m 1k)
SYMBOL cap -32 144 R90
WINDOW 0 0 32 VBottom 2
WINDOW 3 32 32 VTop 2
SYMATTR InstName C1
SYMATTR Value 50µ
SYMBOL res 400 -16 R0
SYMATTR InstName R4
SYMATTR Value 15k
SYMBOL cap 336 -32 R90
WINDOW 0 0 32 VBottom 2
WINDOW 3 32 32 VTop 2
SYMATTR InstName C2
SYMATTR Value 10nn
TEXT -240 376 Left 2 ;.op
TEXT 0 376 Left 2 !.tran 0 5m 0 1u
