Version 4
SHEET 1 880 680
WIRE -16 -64 -80 -64
WIRE 208 -64 48 -64
WIRE 80 48 64 48
WIRE 208 48 208 -64
WIRE 208 48 160 48
WIRE 208 128 208 48
WIRE -192 192 -304 192
WIRE -80 192 -80 -64
WIRE -80 192 -112 192
WIRE -48 192 -80 192
WIRE 64 192 64 48
WIRE 64 192 16 192
WIRE 160 192 64 192
WIRE -304 208 -304 192
FLAG 160 144 0
FLAG 208 208 0
FLAG -304 288 0
SYMBOL e 208 112 R0
SYMATTR InstName E1
SYMATTR Value 100000000000000Meg
SYMBOL voltage -304 192 R0
WINDOW 123 24 124 Left 2
WINDOW 39 0 0 Left 0
SYMATTR InstName V1
SYMATTR Value 1
SYMATTR Value2 AC 1
SYMBOL res -96 176 R90
WINDOW 0 0 56 VBottom 2
WINDOW 3 32 56 VTop 2
SYMATTR InstName R1
SYMATTR Value 1k
SYMBOL res 176 32 R90
WINDOW 0 0 56 VBottom 2
WINDOW 3 32 56 VTop 2
SYMATTR InstName R2
SYMATTR Value 2k
SYMBOL cap 16 176 R90
WINDOW 0 0 32 VBottom 2
WINDOW 3 32 32 VTop 2
SYMATTR InstName C1
SYMATTR Value 10µ
SYMBOL cap 48 -80 R90
WINDOW 0 0 32 VBottom 2
WINDOW 3 32 32 VTop 2
SYMATTR InstName C2
SYMATTR Value 5µ
TEXT -336 336 Left 2 !.ac lin 10000 1 160
