Version 4
SHEET 1 1480 768
WIRE -608 -208 -624 -208
WIRE -592 -208 -608 -208
WIRE -608 -192 -608 -208
WIRE -608 -96 -608 -112
WIRE 400 -96 80 -96
WIRE 592 -96 592 -128
WIRE 592 -96 400 -96
WIRE 1056 -96 592 -96
WIRE 1056 -64 1056 -96
WIRE 1424 -64 1424 -80
WIRE 1424 -64 1392 -64
WIRE 1424 -48 1424 -64
WIRE 80 -32 80 -96
WIRE 400 -32 400 -96
WIRE 1056 32 1056 16
WIRE 400 80 400 48
WIRE 992 80 400 80
WIRE 80 112 80 48
WIRE 400 112 400 80
WIRE 1056 224 1056 128
WIRE 1216 224 1056 224
WIRE -288 256 -352 256
WIRE -160 256 -208 256
WIRE 1216 256 1216 224
WIRE -160 304 -160 256
WIRE -96 304 -160 304
WIRE -352 320 -352 256
WIRE -160 320 -160 304
WIRE 80 320 80 208
WIRE 224 320 80 320
WIRE 400 320 400 208
WIRE 400 320 224 320
WIRE 1056 320 1056 224
WIRE -96 368 -96 304
WIRE 160 368 -96 368
WIRE 992 368 160 368
WIRE 1216 368 1216 336
WIRE -160 432 -160 416
WIRE 224 432 224 416
WIRE 1056 432 1056 416
WIRE -160 528 -160 512
WIRE 224 528 224 512
WIRE 224 528 -160 528
WIRE 592 528 224 528
WIRE 1056 528 1056 512
WIRE 1056 528 592 528
WIRE 592 560 592 528
FLAG 1392 -64 0
FLAG 1216 368 0
FLAG -352 320 0
FLAG 1424 -160 V++
FLAG 592 -128 V++
FLAG 1424 32 V--
FLAG 592 560 V--
FLAG -608 -96 0
FLAG -704 -208 Vi1
FLAG 16 160 Vi1
FLAG -512 -208 Vi2
FLAG 464 160 Vi2
SYMBOL npn 16 112 R0
SYMATTR InstName Q1
SYMATTR Value miNPN
SYMBOL npn 464 112 M0
SYMATTR InstName Q2
SYMATTR Value miNPN
SYMBOL res 64 -48 R0
SYMATTR InstName R1
SYMATTR Value 10k
SYMBOL res 384 -48 R0
SYMATTR InstName R2
SYMATTR Value 10k
SYMBOL npn 160 320 R0
SYMATTR InstName Q3
SYMATTR Value miNPN
SYMBOL npn -96 320 M0
SYMATTR InstName Q5
SYMATTR Value miNPN
SYMBOL res -176 416 R0
SYMATTR InstName R3
SYMATTR Value 1k
SYMBOL res 208 416 R0
SYMATTR InstName R5
SYMATTR Value 3.8k
SYMBOL res -192 240 R90
WINDOW 0 0 56 VBottom 2
WINDOW 3 32 56 VTop 2
SYMATTR InstName R6
SYMATTR Value 1k
SYMBOL pnp 992 128 M180
SYMATTR InstName Q6
SYMATTR Value miPNP
SYMBOL npn 992 320 R0
SYMATTR InstName Q7
SYMATTR Value miNPN
SYMBOL res 1040 416 R0
SYMATTR InstName R7
SYMATTR Value 1k
SYMBOL res 1200 240 R0
SYMATTR InstName R8
SYMATTR Value 1k
SYMBOL res 1040 -80 R0
SYMATTR InstName R9
SYMATTR Value 1k
SYMBOL voltage 1424 -176 R0
WINDOW 123 0 0 Left 0
WINDOW 39 0 0 Left 0
SYMATTR InstName V1
SYMATTR Value 9
SYMBOL voltage 1424 -64 R0
WINDOW 123 0 0 Left 0
WINDOW 39 0 0 Left 0
SYMATTR InstName V2
SYMATTR Value 9
SYMBOL voltage -608 -208 R0
WINDOW 123 0 0 Left 0
WINDOW 39 0 0 Left 0
SYMATTR InstName V3
SYMATTR Value 0
SYMBOL voltage -608 -208 R90
WINDOW 0 -32 56 VBottom 2
WINDOW 3 32 56 VTop 2
WINDOW 123 0 0 Left 0
WINDOW 39 0 0 Left 0
SYMATTR InstName V4
SYMATTR Value 0
SYMBOL voltage -496 -208 R90
WINDOW 0 -32 56 VBottom 2
WINDOW 3 32 56 VTop 2
WINDOW 123 0 0 Left 0
WINDOW 39 0 0 Left 0
SYMATTR InstName V5
SYMATTR Value 0
TEXT -112 664 Left 2 !.model miPNP ako:PNP bf=100
TEXT -112 696 Left 2 !.model miNPN ako:NPN bf=100
TEXT -752 720 Left 2 ;.op
TEXT -752 752 Left 2 !.tran 0 5 4 1m
