Version 4
SHEET 1 880 680
WIRE 464 -192 240 -192
WIRE 736 -192 528 -192
WIRE -144 -48 -144 -80
WIRE -144 -48 -224 -48
WIRE 48 -48 0 -48
WIRE 128 -48 48 -48
WIRE 240 -48 240 -192
WIRE 240 -48 208 -48
WIRE 272 -48 240 -48
WIRE 384 -48 352 -48
WIRE 464 -48 384 -48
WIRE 736 -32 736 -192
WIRE 736 -32 528 -32
WIRE 800 -32 736 -32
WIRE -224 -16 -224 -48
WIRE -144 -16 -144 -48
WIRE 464 -16 432 -16
WIRE 736 0 736 -32
WIRE 48 32 48 -48
WIRE 384 48 384 -48
WIRE 432 96 432 -16
WIRE 736 96 736 80
WIRE 736 96 432 96
WIRE 736 112 736 96
WIRE 48 224 48 112
WIRE 384 224 384 112
WIRE 736 224 736 192
FLAG -224 -16 0
FLAG -144 -160 +10
FLAG -144 64 -10
FLAG 496 0 +10
FLAG 496 -64 -10
FLAG 384 224 0
FLAG 736 224 0
FLAG 48 224 0
FLAG 800 -32 V0
FLAG 0 -48 Vi
FLAG 48 -48 1
FLAG 240 -192 2
FLAG 384 -48 3
FLAG 736 96 4
SYMBOL OpAmps\\opamp2 496 32 M180
SYMATTR InstName U1
SYMATTR Value TL081
SYMBOL voltage -144 -176 R0
SYMATTR InstName V1
SYMATTR Value 10
SYMBOL voltage -144 -32 R0
SYMATTR InstName V2
SYMATTR Value 10
SYMBOL res 224 -64 R90
WINDOW 0 0 56 VBottom 2
WINDOW 3 28 56 VBottom 2
SYMATTR InstName R1
SYMATTR Value 1430
SYMBOL res 368 -64 R90
WINDOW 0 0 56 VBottom 2
WINDOW 3 28 56 VBottom 2
SYMATTR InstName R2
SYMATTR Value 8660
SYMBOL res 752 96 R180
WINDOW 0 36 76 Left 2
WINDOW 3 36 48 Left 2
SYMATTR InstName R3
SYMATTR Value 2490
SYMBOL res 752 208 R180
WINDOW 0 36 76 Left 2
WINDOW 3 36 48 Left 2
SYMATTR InstName R4
SYMATTR Value 1k
SYMBOL cap 528 -208 R90
WINDOW 0 0 32 VBottom 2
WINDOW 3 32 32 VTop 2
SYMATTR InstName C1
SYMATTR Value 100n
SYMBOL cap 400 112 R180
WINDOW 0 24 56 Left 2
WINDOW 3 24 8 Left 2
SYMATTR InstName C2
SYMATTR Value 100n
SYMBOL voltage 48 16 R0
WINDOW 123 24 124 Left 2
WINDOW 39 0 0 Left 0
SYMATTR InstName V3
SYMATTR Value SINE(0 1)
SYMATTR Value2 AC 1
TEXT 40 264 Left 2 !.inc TL084.txt
TEXT 440 272 Left 2 !.ac lin 1000000 16 23.8k
