Version 4
SHEET 1 1184 2328
WIRE 672 -96 80 -96
WIRE 736 -96 672 -96
WIRE 672 -64 672 -96
WIRE 736 -64 736 -96
WIRE 80 -16 80 -96
WIRE 544 64 208 64
WIRE 736 64 736 16
WIRE 736 64 640 64
WIRE 880 64 736 64
WIRE 208 96 208 64
WIRE 592 160 592 128
WIRE 672 160 672 16
WIRE 672 160 592 160
WIRE -352 176 -352 160
WIRE -272 176 -352 176
WIRE -48 176 -128 176
WIRE 80 176 80 64
WIRE 80 176 16 176
WIRE 160 176 80 176
WIRE 880 176 880 64
WIRE -352 192 -352 176
WIRE -128 192 -128 176
WIRE -272 208 -272 176
WIRE 592 240 592 160
WIRE 80 256 80 176
WIRE 208 256 208 192
WIRE 256 256 208 256
WIRE 336 256 320 256
WIRE 336 336 336 256
WIRE 880 352 880 256
WIRE 80 416 80 336
WIRE 208 416 208 336
WIRE 208 416 80 416
WIRE 592 416 592 320
WIRE 592 416 208 416
WIRE 656 816 64 816
WIRE 720 816 656 816
WIRE 656 848 656 816
WIRE 720 848 720 816
WIRE 64 896 64 816
WIRE 528 976 192 976
WIRE 720 976 720 928
WIRE 720 976 624 976
WIRE 864 976 720 976
WIRE 192 1008 192 976
WIRE -64 1056 -144 1056
WIRE 64 1056 64 976
WIRE 64 1056 0 1056
WIRE 128 1056 64 1056
WIRE 544 1056 544 1024
WIRE 656 1056 656 928
WIRE 656 1056 544 1056
WIRE 864 1088 864 976
WIRE -144 1104 -144 1056
WIRE 544 1152 544 1056
WIRE 64 1168 64 1056
WIRE 192 1168 192 1104
WIRE 240 1168 192 1168
WIRE 320 1168 304 1168
WIRE 320 1248 320 1168
WIRE 864 1264 864 1168
WIRE 64 1328 64 1248
WIRE 192 1328 192 1248
WIRE 192 1328 64 1328
WIRE 544 1328 544 1232
WIRE 544 1328 192 1328
WIRE 272 1664 64 1664
WIRE 656 1664 272 1664
WIRE 720 1664 656 1664
WIRE 272 1696 272 1664
WIRE 656 1696 656 1664
WIRE 720 1696 720 1664
WIRE 64 1744 64 1664
WIRE 272 1824 272 1776
WIRE 272 1824 192 1824
WIRE 528 1824 272 1824
WIRE 720 1824 720 1776
WIRE 720 1824 624 1824
WIRE 864 1824 720 1824
WIRE 192 1856 192 1824
WIRE 576 1920 576 1888
WIRE 656 1920 656 1776
WIRE 656 1920 576 1920
WIRE -64 1936 -144 1936
WIRE 64 1936 64 1824
WIRE 64 1936 0 1936
WIRE 144 1936 64 1936
WIRE 864 1936 864 1824
WIRE -144 1952 -144 1936
WIRE 576 2000 576 1920
WIRE 64 2016 64 1936
WIRE 192 2016 192 1952
WIRE 240 2016 192 2016
WIRE 320 2016 304 2016
WIRE 320 2096 320 2016
WIRE 864 2112 864 2016
WIRE 64 2176 64 2096
WIRE 192 2176 192 2096
WIRE 192 2176 64 2176
WIRE 576 2176 576 2080
WIRE 576 2176 192 2176
FLAG -272 208 0
FLAG -128 352 0
FLAG 336 336 0
FLAG 880 352 0
FLAG 672 -96 +10
FLAG -352 80 +10
FLAG -352 272 -10
FLAG 208 416 -10
FLAG -144 1264 0
FLAG 320 1248 0
FLAG 864 1264 0
FLAG 656 816 +10
FLAG 192 1328 -10
FLAG -144 2112 0
FLAG 320 2096 0
FLAG 864 2112 0
FLAG 656 1664 +10
FLAG 192 2176 -10
SYMBOL voltage -352 64 R0
WINDOW 123 0 0 Left 0
WINDOW 39 0 0 Left 0
SYMATTR InstName V1
SYMATTR Value 10
SYMBOL voltage -352 288 R180
WINDOW 0 24 96 Left 2
WINDOW 3 24 16 Left 2
WINDOW 123 0 0 Left 0
WINDOW 39 0 0 Left 0
SYMATTR InstName V2
SYMATTR Value -10
SYMBOL voltage -128 256 R0
WINDOW 123 24 124 Left 2
WINDOW 39 0 0 Left 0
WINDOW 3 -194 162 Left 2
SYMATTR Value2 AC 1
SYMATTR InstName V3
SYMATTR Value ""
SYMBOL res -144 176 R0
SYMATTR InstName R1
SYMATTR Value 1k
SYMBOL cap 16 160 R90
WINDOW 0 0 32 VBottom 2
WINDOW 3 32 32 VTop 2
SYMATTR InstName C1
SYMATTR Value 1µ
SYMBOL res 64 240 R0
SYMATTR InstName R2
SYMATTR Value 1Meg
SYMBOL res 64 -32 R0
SYMATTR InstName R3
SYMATTR Value 5.66Meg
SYMBOL nmos 160 96 R0
SYMATTR InstName M1
SYMATTR Value mi_nmos
SYMBOL res 192 240 R0
SYMATTR InstName R4
SYMATTR Value 1k
SYMBOL cap 320 240 R90
WINDOW 0 0 32 VBottom 2
WINDOW 3 32 32 VTop 2
SYMATTR InstName C2
SYMATTR Value 10µ
SYMBOL npn 640 128 M270
SYMATTR InstName Q1
SYMATTR Value mi_npn
SYMBOL res 576 224 R0
SYMATTR InstName R5
SYMATTR Value 4.7k
SYMBOL res 720 -80 R0
SYMATTR InstName R6
SYMATTR Value 10k
SYMBOL res 864 160 R0
SYMATTR InstName R7
SYMATTR Value 20k
SYMBOL res 656 -80 R0
SYMATTR InstName R8
SYMATTR Value 12k
SYMBOL voltage -144 1168 R0
WINDOW 123 24 124 Left 2
WINDOW 39 0 0 Left 0
SYMATTR Value2 AC 1
SYMATTR InstName V4
SYMATTR Value ""
SYMBOL res -160 1088 R0
SYMATTR InstName R9
SYMATTR Value 1k
SYMBOL cap 0 1040 R90
WINDOW 0 0 32 VBottom 2
WINDOW 3 32 32 VTop 2
SYMATTR InstName C3
SYMATTR Value 1µ
SYMBOL res 48 1152 R0
SYMATTR InstName R10
SYMATTR Value 1Meg
SYMBOL res 48 880 R0
SYMATTR InstName R11
SYMATTR Value 5.66Meg
SYMBOL nmos 624 1024 M270
SYMATTR InstName M2
SYMATTR Value mi_nmos
SYMBOL res 176 1152 R0
SYMATTR InstName R12
SYMATTR Value 1k
SYMBOL cap 304 1152 R90
WINDOW 0 0 32 VBottom 2
WINDOW 3 32 32 VTop 2
SYMATTR InstName C4
SYMATTR Value 10µ
SYMBOL npn 128 1008 R0
SYMATTR InstName Q2
SYMATTR Value mi_npn
SYMBOL res 528 1136 R0
SYMATTR InstName R13
SYMATTR Value 4.7k
SYMBOL res 704 832 R0
SYMATTR InstName R14
SYMATTR Value 10k
SYMBOL res 848 1072 R0
SYMATTR InstName R15
SYMATTR Value 20k
SYMBOL res 640 832 R0
SYMATTR InstName R16
SYMATTR Value 12k
SYMBOL voltage -144 2016 R0
WINDOW 123 24 124 Left 2
WINDOW 39 0 0 Left 0
SYMATTR Value2 AC 1
SYMATTR InstName V5
SYMATTR Value ""
SYMBOL res -160 1936 R0
SYMATTR InstName R17
SYMATTR Value 1k
SYMBOL cap 0 1920 R90
WINDOW 0 0 32 VBottom 2
WINDOW 3 32 32 VTop 2
SYMATTR InstName C5
SYMATTR Value 1µ
SYMBOL res 48 2000 R0
SYMATTR InstName R18
SYMATTR Value 1Meg
SYMBOL res 48 1728 R0
SYMATTR InstName R19
SYMATTR Value 5.66Meg
SYMBOL nmos 144 1856 R0
SYMATTR InstName M3
SYMATTR Value mi_nmos
SYMBOL res 176 2000 R0
SYMATTR InstName R20
SYMATTR Value 1k
SYMBOL cap 304 2000 R90
WINDOW 0 0 32 VBottom 2
WINDOW 3 32 32 VTop 2
SYMATTR InstName C6
SYMATTR Value 10µ
SYMBOL npn 624 1888 M270
SYMATTR InstName Q3
SYMATTR Value mi_npn
SYMBOL res 560 1984 R0
SYMATTR InstName R21
SYMATTR Value 4.7k
SYMBOL res 704 1680 R0
SYMATTR InstName R22
SYMATTR Value 10k
SYMBOL res 848 1920 R0
SYMATTR InstName R23
SYMATTR Value 20k
SYMBOL res 640 1680 R0
SYMATTR InstName R24
SYMATTR Value 12k
SYMBOL res 256 1680 R0
SYMATTR InstName R25
SYMATTR Value 15.1k
TEXT 464 472 Left 2 !.model mi_npn npn(bf = 200)
TEXT 464 496 Left 2 !.model mi_nmos nmos( kp = 2m, vto = 1)
TEXT 64 528 Left 2 !.tran 0 120m 20m
TEXT 64 552 Left 2 ;.ac dec 10 0.001 100k
TEXT 448 1384 Left 2 !.model mi_npn npn(bf = 200)
TEXT 448 1408 Left 2 !.model mi_nmos nmos( kp = 2m, vto = 1)
TEXT 48 1440 Left 2 ;.tran 0 4 3 1m
TEXT 48 1464 Left 2 ;.ac dec 10 0.001 100k
TEXT 448 2232 Left 2 !.model mi_npn npn(bf = 200)
TEXT 448 2256 Left 2 !.model mi_nmos nmos( kp = 2m, vto = 1)
TEXT 48 2288 Left 2 ;.tran 0 4 3 1m
TEXT 48 2312 Left 2 ;.ac dec 10 0.001 100k
